600

C  9.313   -0.821  -0.780  
C  7.920   -0.814  -0.841  
C  9.984   -0.020  0.146   
C  7.194   -0.002  0.042   
H  7.402   -1.434  -1.565  
C  9.257   0.793   1.018   
N  5.742   -0.000  -0.004  
C  7.863   0.804   0.975   
C  5.066   -1.238  -0.034  
C  5.066   1.238   -0.010  
H  7.300   1.431   1.658   
O  5.700   -2.300  -0.018  
C  3.580   -1.226  -0.061  
C  3.580   1.227   -0.033  
O  5.702   2.299   -0.007  
C  2.878   -2.429  -0.081  
C  2.861   0.001   -0.054  
C  2.878   2.430   -0.035  
C  1.478   -2.438  -0.087  
H  3.438   -3.360  -0.087  
C  1.431   0.000   -0.066  
C  1.478   2.439   -0.053  
H  3.437   3.362   -0.022  
C  0.733   -1.250  -0.075  
H  0.971   -3.398  -0.099  
C  0.733   1.251   -0.066  
H  0.971   3.399   -0.054  
C  -0.733  -1.250  -0.066  
C  -0.733  1.251   -0.074  
C  -1.431  0.000   -0.066  
C  -1.478  -2.438  -0.053  
C  -1.478  2.439   -0.082  
C  -2.860  0.000   -0.054  
C  -2.877  -2.429  -0.036  
H  -0.971  -3.399  -0.053  
C  -2.877  2.430   -0.076  
H  -0.971  3.399   -0.092  
C  -3.579  1.227   -0.060  
C  -3.580  -1.226  -0.034  
H  -3.437  -3.361  -0.022  
H  -3.437  3.361   -0.081  
C  -5.066  1.239   -0.036  
C  -5.066  -1.236  -0.015  
O  -5.699  2.301   -0.019  
N  -5.742  0.002   -0.011  
O  -5.702  -2.297  -0.015  
C  -7.194  0.004   0.025   
C  -7.913  0.817   -0.861  
C  -7.870  -0.806  0.950   
C  -9.307  0.820   -0.815  
H  -7.390  1.442   -1.577  
C  -9.264  -0.797  0.980   
H  -7.312  -1.434  1.637   
C  -9.984  0.014   0.102   
H  -9.866  1.451   -1.501  
H  -11.071 0.018   0.133   
H  -9.789  -1.425  1.696   
H  9.877   -1.453  -1.461  
H  11.070  -0.028  0.188   
H  9.777   1.418   1.740   
C  9.007   -2.508  2.579   
C  7.638   -2.247  2.518   
C  9.812   -1.843  3.505   
C  7.072   -1.316  3.401   
H  7.015   -2.762  1.794   
C  9.246   -0.911  4.378   
N  5.645   -1.049  3.355   
C  7.877   -0.646  4.334   
C  4.755   -2.142  3.325   
C  5.207   0.291   3.349   
H  7.438   0.074   5.017   
O  5.184   -3.302  3.341   
C  3.295   -1.860  3.298   
C  3.744   0.553   3.326   
O  6.026   1.218   3.352   
C  2.386   -2.914  3.279   
C  2.812   -0.522  3.305   
C  3.273   1.863   3.324   
C  1.008   -2.667  3.273   
H  2.766   -3.932  3.272   
C  1.407   -0.261  3.294   
C  1.899   2.128   3.306   
H  3.993   2.677   3.337   
C  0.493   -1.363  3.284   
H  0.334   -3.519  3.261   
C  0.950   1.096   3.294   
H  1.576   3.165   3.305   
C  -0.949  -1.096  3.293   
C  -0.492  1.364   3.285   
C  -1.407  0.262   3.294   
C  -1.899  -2.127  3.306   
C  -1.007  2.668   3.277   
C  -2.812  0.523   3.305   
C  -3.273  -1.862  3.323   
H  -1.575  -3.164  3.306   
C  -2.385  2.915   3.283   
H  -0.333  3.520   3.267   
C  -3.295  1.861   3.300   
C  -3.743  -0.552  3.325   
H  -3.993  -2.676  3.337   
H  -2.765  3.933   3.279   
C  -4.754  2.144   3.324   
C  -5.207  -0.290  3.345   
O  -5.183  3.304   3.340   
N  -5.645  1.051   3.348   
O  -6.026  -1.217  3.344   
C  -7.072  1.318   3.385   
C  -7.631  2.249   2.498   
C  -7.884  0.646   4.309   
C  -9.001  2.506   2.544   
H  -7.002  2.768   1.782   
C  -9.254  0.908   4.340   
H  -7.451  -0.074  4.996   
C  -9.814  1.838   3.461   
H  -9.435  3.229   1.858   
H  -10.881 2.041   3.492   
H  -9.885  0.388   5.056   
H  9.446   -3.233  1.898   
H  10.878  -2.050  3.547   
H  9.871   -0.392  5.099   
C  8.397   -4.111  5.939   
C  7.099   -3.604  5.878   
C  9.310   -3.605  6.865   
C  6.713   -2.586  6.761   
H  6.393   -3.997  5.154   
C  8.924   -2.585  7.737   
N  5.358   -2.063  6.714   
C  7.627   -2.074  7.693   
C  4.283   -2.975  6.684   
C  5.173   -0.665  6.709   
H  7.327   -1.286  8.377   
O  4.494   -4.194  6.700   
C  2.900   -2.430  6.657   
C  3.782   -0.140  6.685   
O  6.147   0.097   6.711   
C  1.813   -3.301  6.638   
C  2.670   -1.027  6.664   
C  3.558   1.234   6.683   
C  0.504   -2.806  6.632   
H  2.001   -4.371  6.631   
C  1.336   -0.514  6.653   
C  2.256   1.745   6.665   
H  4.415   1.903   6.697   
C  0.235   -1.430  6.643   
H  -0.314  -3.520  6.620   
C  1.134   0.904   6.653   
H  2.127   2.824   6.664   
C  -1.133  -0.904  6.652   
C  -0.235  1.431   6.645   
C  -1.335  0.514   6.653   
C  -2.255  -1.744  6.665   
C  -0.503  2.807   6.636   
C  -2.669  1.028   6.664   
C  -3.558  -1.233  6.682   
H  -2.127  -2.823  6.665   
C  -1.812  3.301   6.642   
H  0.315   3.521   6.626   
C  -2.899  2.431   6.659   
C  -3.781  0.141   6.684   
H  -4.415  -1.902  6.696   
H  -2.000  4.372   6.638   
C  -4.282  2.976   6.683   
C  -5.172  0.666   6.704   
O  -4.492  4.195   6.699   
N  -5.358  2.064   6.708   
O  -6.147  -0.096  6.703   
C  -6.712  2.587   6.744   
C  -7.092  3.605   5.857   
C  -7.634  2.075   7.668   
C  -8.392  4.108   5.903   
H  -6.378  4.000   5.141   
C  -8.932  2.584   7.699   
H  -7.339  1.288   8.355   
C  -9.313  3.600   6.821   
H  -8.687  4.898   5.218   
H  -10.325 3.994   6.851   
H  -9.648  2.187   8.415   
H  8.696   -4.904  5.257   
H  10.321  -4.002  6.906   
H  9.634   -2.189  8.458   
C  7.504   -5.576  9.298   
C  6.321   -4.840  9.237   
C  8.495   -5.245  10.224  
C  6.128   -3.769  10.120  
H  5.555   -5.098  8.513   
C  8.301   -4.172  11.096  
N  4.891   -3.007  10.073  
C  7.119   -3.432  11.052  
C  3.668   -3.707  10.044  
C  4.964   -1.599  10.068  
H  6.968   -2.603  11.736  
O  3.652   -4.944  10.059  
C  2.407   -2.919  10.017  
C  3.692   -0.829  10.044  
O  6.062   -1.028  10.070  
C  1.180   -3.576  9.997   
C  2.437   -1.497  10.023  
C  3.724   0.563   10.042  
C  -0.017  -2.851  9.991   
H  1.169   -4.663  9.991   
C  1.219   -0.749  10.012  
C  2.537   1.304   10.024  
H  4.688   1.064   10.056  
C  -0.030  -1.449  10.003  
H  -0.952  -3.404  9.979   
C  1.280   0.682   10.012  
H  2.607   2.388   10.023  
C  -1.279  -0.681  10.011  
C  0.031   1.450   10.004  
C  -1.219  0.750   10.012  
C  -2.536  -1.303  10.024  
C  0.018   2.852   9.995   
C  -2.436  1.498   10.023  
C  -3.723  -0.562  10.042  
H  -2.607  -2.387  10.024  
C  -1.179  3.577   10.001  
H  0.953   3.404   9.985   
C  -2.406  2.920   10.018  
C  -3.692  0.830   10.043  
H  -4.688  -1.063  10.055  
H  -1.168  4.664   9.997   
C  -3.667  3.708   10.042  
C  -4.964  1.600   10.063  
O  -3.650  4.945   10.058  
N  -4.891  3.008   10.067  
O  -6.061  1.029   10.063  
C  -6.127  3.770   10.103  
C  -6.314  4.840   9.216   
C  -7.126  3.435   11.028  
C  -7.500  5.572   9.262   
H  -5.540  5.098   8.500   
C  -8.310  4.172   11.058  
H  -6.980  2.607   11.714  
C  -8.499  5.240   10.180  
H  -7.646  6.403   8.577   
H  -9.422  5.813   10.210  
H  -9.086  3.913   11.774  
H  7.654   -6.410  8.617   
H  9.416   -5.821  10.265  
H  9.072   -3.912  11.817  
C  6.360   -6.853  12.657  
C  5.330   -5.914  12.596  
C  7.394   -6.708  13.583  
C  5.336   -4.825  13.479  
H  4.530   -6.027  11.872  
C  7.399   -5.618  14.455  
N  4.260   -3.850  13.432  
C  6.373   -4.675  14.412  
C  2.929   -4.315  13.403  
C  4.589   -2.479  13.427  
H  6.376   -3.832  15.095  
O  2.687   -5.528  13.419  
C  1.834   -3.310  13.376  
C  3.479   -1.489  13.404  
O  5.772   -2.118  13.429  
C  0.507   -3.732  13.356  
C  2.123   -1.918  13.383  
C  3.764   -0.126  13.401  
C  -0.538  -2.800  13.350  
H  0.297   -4.798  13.350  
C  1.062   -0.959  13.371  
C  2.732   0.818   13.383  
H  4.804   0.190   13.415  
C  -0.294  -1.419  13.362  
H  -1.558  -3.173  13.338  
C  1.383   0.437   13.371  
H  3.000   1.871   13.382  
C  -1.382  -0.436  13.370  
C  0.295   1.420   13.363  
C  -1.061  0.960   13.371  
C  -2.731  -0.818  13.383  
C  0.539   2.800   13.354  
C  -2.122  1.918   13.383  
C  -3.763  0.127   13.401  
H  -2.999  -1.871  13.383  
C  -0.505  3.732   13.360  
H  1.559   3.173   13.344  
C  -1.832  3.310   13.377  
C  -3.478  1.490   13.402  
H  -4.803  -0.189  13.414  
H  -0.296  4.798   13.356  
C  -2.928  4.316   13.401  
C  -4.588  2.480   13.422  
O  -2.686  5.529   13.417  
N  -4.259  3.851   13.426  
O  -5.771  2.119   13.422  
C  -5.335  4.826   13.462  
C  -5.323  5.912   12.575  
C  -6.379  4.679   14.387  
C  -6.356  6.848   12.622  
H  -4.516  6.024   11.859  
C  -7.408  5.620   14.417  
H  -6.387  3.838   15.073  
C  -7.398  6.705   13.539  
H  -6.347  7.692   11.936  
H  -8.202  7.437   13.569  
H  -8.218  5.507   15.133  
H  6.354   -7.700  11.976  
H  8.194   -7.443  13.625  
H  8.205   -5.503  15.176  
C  5.001   -7.900  16.016  
C  4.160   -6.788  15.955  
C  6.044   -7.946  16.942  
C  4.365   -5.718  16.838  
H  3.353   -6.753  15.231  
C  6.249   -6.875  17.814  
N  3.485   -4.563  16.792  
C  5.411   -5.761  17.771  
C  2.091   -4.777  16.762  
C  4.059   -3.275  16.786  
H  5.568   -4.932  18.454  
O  1.632   -5.926  16.778  
C  1.198   -3.589  16.735  
C  3.148   -2.100  16.763  
O  5.288   -3.137  16.788  
C  -0.184  -3.761  16.715  
C  1.737   -2.273  16.742  
C  3.678   -0.812  16.760  
C  -1.040  -2.655  16.709  
H  -0.584  -4.772  16.709  
C  0.869   -1.137  16.730  
C  2.836   0.306   16.742  
H  4.758   -0.691  16.774  
C  -0.549  -1.342  16.721  
H  -2.111  -2.834  16.697  
C  1.440   0.177   16.730  
H  3.291   1.292   16.742  
C  -1.439  -0.176  16.730  
C  0.550   1.342   16.722  
C  -0.868  1.137   16.730  
C  -2.835  -0.305  16.742  
C  1.041   2.655   16.713  
C  -1.736  2.273   16.742  
C  -3.677  0.813   16.760  
H  -3.290  -1.291  16.742  
C  0.185   3.762   16.720  
H  2.113   2.835   16.704  
C  -1.197  3.589   16.736  
C  -3.147  2.100   16.762  
H  -4.757  0.692   16.774  
H  0.585   4.772   16.715  
C  -2.090  4.778   16.760  
C  -4.058  3.276   16.781  
O  -1.630  5.926   16.777  
N  -3.484  4.564   16.785  
O  -5.287  3.137   16.781  
C  -4.364  5.719   16.821  
C  -4.154  6.785   15.934  
C  -5.417  5.765   17.746  
C  -4.998  7.894   15.981  
H  -3.339  6.748   15.218  
C  -6.257  6.878   17.776  
H  -5.578  4.941   18.433  
C  -6.049  7.943   16.898  
H  -4.835  8.722   15.295  
H  -6.705  8.810   16.928  
H  -7.074  6.915   18.492  
H  4.841   -8.732  15.335  
H  6.697   -8.814  16.984  
H  7.061   -6.909  18.535  
C  3.473   -8.680  19.375  
C  2.850   -7.434  19.314  
C  4.491   -8.917  20.301  
C  3.247   -6.419  20.197  
H  2.063   -7.252  18.590  
C  4.887   -7.901  21.173  
N  2.593   -5.123  20.151  
C  4.268   -6.652  21.130  
C  1.183   -5.079  20.121  
C  3.392   -3.962  20.145  
H  4.573   -5.867  21.813  
O  0.522   -6.124  20.137  
C  0.522   -3.748  20.094  
C  2.712   -2.640  20.122  
O  4.626   -4.050  20.148  
C  -0.868  -3.664  20.074  
C  1.292   -2.552  20.101  
C  3.467   -1.470  20.120  
C  -1.508  -2.420  20.068  
H  -1.446  -4.585  20.068  
C  0.647   -1.277  20.089  
C  2.844   -0.218  20.102  
H  4.551   -1.548  20.133  
C  -0.785  -1.219  20.080  
H  -2.594  -2.401  20.056  
C  1.448   -0.089  20.089  
H  3.472   0.669   20.101  
C  -1.447  0.089   20.089  
C  0.785   1.219   20.081  
C  -0.646  1.277   20.089  
C  -2.843  0.218   20.102  
C  1.509   2.420   20.073  
C  -1.291  2.552   20.101  
C  -3.467  1.471   20.119  
H  -3.471  -0.668  20.102  
C  0.869   3.664   20.079  
H  2.595   2.401   20.063  
C  -0.521  3.748   20.095  
C  -2.711  2.640   20.121  
H  -4.550  1.549   20.133  
H  1.447   4.585   20.074  
C  -1.182  5.079   20.120  
C  -3.391  3.962   20.140  
O  -0.520  6.124   20.136  
N  -2.591  5.124   20.144  
O  -4.625  4.050   20.140  
C  -3.245  6.420   20.180  
C  -2.844  7.430   19.294  
C  -4.272  6.658   21.105  
C  -3.472  8.674   19.340  
H  -2.050  7.244   18.578  
C  -4.895  7.906   21.136  
H  -4.582  5.876   21.792  
C  -4.496  8.915   20.257  
H  -3.161  9.458   18.654  
H  -4.983  9.886   20.288  
H  -5.692  8.091   21.851  
H  3.164   -9.469  18.694  
H  4.974   -9.889  20.343  
H  5.680   -8.083  21.895  
C  1.829   -9.169  22.734  
C  1.444   -7.829  22.673  
C  2.786   -9.587  23.660  
C  2.020   -6.905  23.556  
H  0.703   -7.507  21.949  
C  3.362   -8.661  24.533  
N  1.613   -5.511  23.510  
C  2.981   -7.320  24.489  
C  0.236   -5.210  23.480  
C  2.611   -4.515  23.504  
H  3.425   -6.603  25.172  
O  -0.606  -6.117  23.496  
C  -0.171  -3.780  23.453  
C  2.184   -3.091  23.481  
O  3.808   -4.827  23.507  
C  -1.523  -3.444  23.434  
C  0.804   -2.745  23.460  
C  3.141   -2.079  23.479  
C  -1.924  -2.104  23.428  
H  -2.259  -4.243  23.427  
C  0.403   -1.373  23.449  
C  2.756   -0.733  23.461  
H  4.192   -2.354  23.492  
C  -0.994  -1.055  23.439  
H  -2.989  -1.887  23.416  
C  1.407   -0.352  23.449  
H  3.535   0.023   23.460  
C  -1.406  0.352   23.448  
C  0.995   1.055   23.441  
C  -0.402  1.373   23.449  
C  -2.755  0.734   23.461  
C  1.926   2.104   23.432  
C  -0.803  2.745   23.460  
C  -3.140  2.079   23.478  
H  -3.535  -0.023  23.461  
C  1.524   3.444   23.438  
H  2.990   1.887   23.422  
C  0.172   3.780   23.455  
C  -2.183  3.091   23.480  
H  -4.191  2.354   23.492  
H  2.260   4.243   23.434  
C  -0.234  5.210   23.479  
C  -2.610  4.515   23.500  
O  0.607   6.116   23.495  
N  -1.612  5.511   23.504  
O  -3.807  4.827   23.499  
C  -2.018  6.905   23.540  
C  -1.439  7.824   22.653  
C  -2.984  7.326   24.464  
C  -1.829  9.163   22.699  
H  -0.692  7.497   21.937  
C  -3.368  8.667   24.495  
H  -3.431  6.614   25.151  
C  -2.792  9.586   23.616  
H  -1.380  9.877   22.013  
H  -3.093  10.630  23.647  
H  -4.118  8.995   25.211  
H  1.381   -9.888  22.053  
H  3.083   -10.632 23.702  
H  4.108   -8.985  25.254  
C  0.123   -9.349  26.094  
C  -0.010  -7.962  26.033  
C  0.988   -9.935  27.020  
C  0.724   -7.157  26.916  
H  -0.680  -7.509  25.309  
C  1.723   -9.129  27.892  
N  0.579   -5.712  26.869  
C  1.593   -7.741  27.848  
C  -0.720  -5.165  26.839  
C  1.743   -4.916  26.864  
H  2.161   -7.118  28.532  
O  -1.713  -5.903  26.855  
C  -0.859  -3.685  26.812  
C  1.582   -3.438  26.840  
O  2.862   -5.441  26.866  
C  -2.126  -3.108  26.793  
C  0.289   -2.846  26.819  
C  2.708   -2.618  26.838  
C  -2.276  -1.717  26.787  
H  -2.996  -3.759  26.787  
C  0.145   -1.424  26.808  
C  2.576   -1.225  26.820  
H  3.691   -3.080  26.852  
C  -1.170  -0.856  26.798  
H  -3.283  -1.309  26.775  
C  1.319   -0.603  26.808  
H  3.480   -0.623  26.819  
C  -1.318  0.603   26.807  
C  1.171   0.856   26.800  
C  -0.144  1.423   26.808  
C  -2.575  1.224   26.820  
C  2.277   1.716   26.791  
C  -0.288  2.846   26.819  
C  -2.707  2.618   26.837  
H  -3.479  0.623   26.820  
C  2.127   3.108   26.797  
H  3.284   1.309   26.781  
C  0.860   3.685   26.814  
C  -1.581  3.438   26.839  
H  -3.690  3.080   26.851  
H  2.997   3.759   26.793  
C  0.721   5.165   26.838  
C  -1.741  4.916   26.859  
O  1.714   5.902   26.854  
N  -0.578  5.712   26.863  
O  -2.861  5.441   26.858  
C  -0.723  7.158   26.899  
C  0.014   7.955   26.012  
C  -1.596  7.748   27.824  
C  -0.124  9.343   26.058  
H  0.689   7.497   25.296  
C  -1.728  9.136   27.854  
H  -2.165  7.130   28.510  
C  -0.994  9.935   26.976  
H  0.448   9.962   25.373  
H  -1.099  11.016  27.006  
H  -2.405  9.596   28.570  
H  -0.449  -9.974  25.413  
H  1.089   -11.016 27.061  
H  2.398   -9.584  28.613  
C  -1.587  -9.214  29.453  
C  -1.465  -7.826  29.392  
C  -0.843  -9.948  30.379  
C  -0.596  -7.169  30.275  
H  -2.040  -7.258  28.668  
C  0.026   -9.291  31.251  
N  -0.474  -5.722  30.228  
C  0.152   -7.902  31.207  
C  -1.652  -4.947  30.199  
C  0.815   -5.151  30.223  
H  0.824   -7.393  31.891  
O  -2.762  -5.491  30.214  
C  -1.518  -3.466  30.172  
C  0.928   -3.669  30.199  
O  1.820   -5.873  30.225  
C  -2.658  -2.667  30.152  
C  -0.236  -2.851  30.179  
C  2.184   -3.068  30.197  
C  -2.552  -1.272  30.146  
H  -3.633  -3.148  30.146  
C  -0.118  -1.426  30.167  
C  2.309   -1.674  30.179  
H  3.066   -3.702  30.211  
C  -1.307  -0.628  30.158  
H  -3.467  -0.687  30.134  
C  1.187   -0.834  30.167  
H  3.308   -1.248  30.178  
C  -1.186  0.834   30.166  
C  1.308   0.627   30.159  
C  0.119   1.426   30.167  
C  -2.308  1.674   30.179  
C  2.553   1.271   30.150  
C  0.237   2.850   30.179  
C  -2.183  3.068   30.197  
H  -3.307  1.248   30.179  
C  2.659   2.667   30.156  
H  3.468   0.687   30.140  
C  1.519   3.466   30.173  
C  -0.927  3.669   30.198  
H  -3.065  3.702   30.210  
H  3.634   3.148   30.152  
C  1.653   4.946   30.197  
C  -0.814  5.151   30.218  
O  2.764   5.490   30.213  
N  0.476   5.722   30.222  
O  -1.819  5.872   30.218  
C  0.597   7.169   30.258  
C  1.467   7.819   29.371  
C  -0.153  7.909   31.183  
C  1.585   9.208   29.417  
H  2.047   7.245   28.655  
C  -0.030  9.298   31.213  
H  -0.826  7.405   31.869  
C  0.838   9.949   30.335  
H  2.260   9.713   28.732  
H  0.932   11.032  30.365  
H  -0.612  9.874   31.929  
H  -2.263  -9.724  28.772  
H  -0.941  -11.030 30.421  
H  0.606   -9.861  31.972  
