132

O  -5.651  2.108   0.119   
O  -5.649  -2.387  0.016   
N  -5.687  -0.137  -0.045  
C  -5.031  1.091   0.038   
C  -3.548  1.082   0.014   
C  -2.870  2.265   0.021   
H  -3.415  3.188   0.037   
C  -1.468  2.276   0.009   
H  -0.982  3.231   0.013   
C  -0.737  1.113   -0.003  
C  -1.426  -0.135  0.000   
C  -0.737  -1.384  0.005   
C  -1.470  -2.546  0.013   
H  -0.987  -3.501  0.020   
C  -2.873  -2.534  0.015   
H  -3.420  -3.456  0.023   
C  -3.549  -1.350  0.006   
C  -5.034  -1.358  0.003   
C  -2.837  -0.134  0.004   
O  5.649   -2.387  -0.010  
O  5.651   2.108   -0.124  
N  5.687   -0.137  0.045   
C  5.034   -1.358  -0.000  
C  3.549   -1.350  -0.003  
C  2.873   -2.534  -0.009  
H  3.420   -3.456  -0.014  
C  1.470   -2.546  -0.007  
H  0.987   -3.501  -0.012  
C  0.737   -1.384  -0.002  
C  1.426   -0.135  0.000   
C  0.737   1.113   0.000   
C  1.468   2.276   -0.014  
H  0.982   3.231   -0.021  
C  2.870   2.265   -0.026  
H  3.415   3.188   -0.045  
C  3.548   1.082   -0.017  
C  5.031   1.091   -0.041  
C  2.837   -0.134  -0.004  
C  -7.148  -0.136  -0.190  
H  -7.452  -0.994  -0.755  
H  -7.457  0.753   -0.700  
C  7.148   -0.136  0.191   
H  7.452   -0.992  0.757   
H  7.457   0.755   0.698   
C  -7.805  -0.181  1.203   
H  -7.450  0.705   1.783   
H  -7.451  -1.104  1.724   
C  7.805   -0.184  -1.203  
H  7.450   0.701   -1.785  
H  7.451   -1.108  -1.721  
N  -9.270  -0.178  1.089   
C  -10.028 0.629   1.892   
H  -9.687  -0.770  0.421   
O  -9.471  1.377   2.737   
N  9.270   -0.180  -1.089  
C  10.028  0.625   -1.893  
H  9.687   -0.771  -0.419  
O  9.471   1.371   -2.740  
C  11.562  0.618   -1.763  
H  11.838  0.970   -0.791  
H  11.927  -0.378  -1.898  
H  11.986  1.258   -2.508  
C  -11.562 0.622   1.761   
H  -11.838 0.972   0.789   
H  -11.927 -0.374  1.899   
H  -11.986 1.264   2.505   
O  -3.228  3.730   3.433   
O  -4.836  -0.467  3.330   
N  -4.065  1.647   3.269   
C  -3.012  2.558   3.352   
C  -1.631  2.019   3.328   
C  -0.574  2.880   3.334   
H  -0.753  3.937   3.351   
C  0.738   2.389   3.322   
H  1.535   3.106   3.327   
C  1.004   1.041   3.311   
C  -0.086  0.123   3.314   
C  0.109   -1.290  3.319   
C  -0.991  -2.113  3.327   
H  -0.882  -3.178  3.334   
C  -2.297  -1.599  3.329   
H  -3.137  -2.264  3.336   
C  -2.504  -0.251  3.320   
C  -3.892  0.273   3.317   
C  -1.403  0.629   3.318   
O  5.713   -4.515  3.304   
O  7.325   -0.319  3.190   
N  6.554   -2.427  3.359   
C  5.507   -3.333  3.314   
C  4.124   -2.794  3.311   
C  3.068   -3.657  3.305   
H  3.248   -4.714  3.300   
C  1.754   -3.166  3.307   
H  0.961   -3.885  3.302   
C  1.486   -1.819  3.312   
C  2.577   -0.899  3.314   
C  2.380   0.513   3.314   
C  3.480   1.337   3.300   
H  3.367   2.403   3.293   
C  4.784   0.824   3.288   
H  5.624   1.491   3.269   
C  4.994   -0.523  3.297   
C  6.381   -1.046  3.273   
C  3.894   -1.404  3.310   
C  -5.429  2.171   3.124   
H  -6.020  1.479   2.559   
H  -5.398  3.112   2.614   
C  7.919   -2.950  3.504   
H  7.895   -3.858  4.071   
H  8.526   -2.229  4.012   
C  -6.058  2.364   4.517   
H  -5.409  3.065   5.097   
H  -6.058  1.376   5.038   
C  8.514   -3.230  2.111   
H  8.500   -2.277  1.529   
H  7.853   -3.966  1.593   
N  -7.424  2.892   4.403   
C  -7.843  3.917   5.206   
H  -8.026  2.488   3.735   
O  -7.056  4.416   6.050   
N  9.883   -3.751  2.225   
C  10.880  -3.271  1.421   
H  10.061  -4.453  2.895   
O  10.627  -2.375  0.574   
C  12.310  -3.827  1.551   
H  12.694  -3.598  2.523   
H  12.294  -4.888  1.415   
H  12.935  -3.382  0.806   
C  -9.278  4.460   5.075   
H  -9.411  4.886   4.103   
H  -9.976  3.661   5.213   
H  -9.444  5.212   5.818   
