120

C  -6.539  -5.529  3.833   
C  -5.445  -4.765  3.426   
C  -7.771  -5.396  3.190   
C  -5.589  -3.867  2.359   
H  -4.490  -4.867  3.930   
C  -7.912  -4.495  2.133   
N  -4.451  -3.078  1.918   
C  -6.825  -3.731  1.710   
C  -3.218  -3.731  1.710   
C  -4.627  -1.695  1.710   
H  -6.934  -3.036  0.884   
O  -3.113  -4.949  1.897   
C  -2.064  -2.919  1.240   
C  -3.461  -0.902  1.236   
O  -5.721  -1.162  1.929   
C  -0.834  -3.531  1.013   
C  -2.203  -1.524  1.005   
C  -3.597  0.466   1.015   
C  0.258   -2.787  0.552   
H  -0.739  -4.597  1.197   
C  -1.092  -0.755  0.539   
C  -2.512  1.227   0.565   
H  -4.562  0.932   1.197   
C  0.160   -1.410  0.304   
H  1.198   -3.304  0.386   
C  -1.259  0.650   0.318   
H  -2.662  2.291   0.406   
C  1.295   -0.626  -0.193  
C  -0.119  1.438   -0.164  
C  1.128   0.780   -0.415  
C  2.541   -1.207  -0.465  
C  -0.212  2.818   -0.393  
C  2.233   1.544   -0.903  
C  3.616   -0.453  -0.948  
H  2.692   -2.271  -0.304  
C  0.877   3.560   -0.865  
H  -1.146  3.339   -0.206  
C  2.097   2.942   -1.126  
C  3.479   0.915   -1.172  
H  4.574   -0.923  -1.156  
H  0.785   4.628   -1.039  
C  3.236   3.744   -1.644  
C  4.633   1.700   -1.687  
O  3.122   4.957   -1.861  
N  4.454   3.082   -1.904  
O  5.726   1.167   -1.908  
C  5.569   3.856   -2.422  
C  5.915   5.073   -1.819  
C  6.293   3.383   -3.527  
C  6.981   5.815   -2.327  
H  5.355   5.438   -0.963  
C  7.361   4.132   -4.020  
H  6.024   2.441   -3.994  
C  7.706   5.347   -3.425  
H  7.249   6.759   -1.861  
H  8.537   5.928   -3.816  
H  7.923   3.767   -4.876  
H  -6.428  -6.229  4.657   
H  -8.620  -5.993  3.513   
H  -8.871  -4.390  1.633   
C  -8.378  -1.770  7.451   
C  -7.053  -1.616  7.044   
C  -9.401  -1.069  6.809   
C  -6.754  -0.757  5.977   
H  -6.260  -2.158  7.548   
C  -9.097  -0.210  5.752   
N  -5.378  -0.602  5.536   
C  -7.778  -0.051  5.328   
C  -4.602  -1.760  5.328   
C  -4.877  0.700   5.328   
H  -7.545  0.613   4.502   
O  -5.086  -2.883  5.515   
C  -3.201  -1.593  4.858   
C  -3.475  0.846   4.854   
O  -5.588  1.688   5.547   
C  -2.407  -2.714  4.631   
C  -2.662  -0.298  4.623   
C  -2.947  2.115   4.633   
C  -1.093  -2.576  4.170   
H  -2.829  -3.698  4.815   
C  -1.319  -0.148  4.157   
C  -1.630  2.271   4.183   
H  -3.576  2.982   4.815   
C  -0.527  -1.318  3.922   
H  -0.510  -3.477  4.004   
C  -0.800  1.169   3.936   
H  -1.258  3.279   4.024   
C  0.844   -1.165  3.425   
C  0.576   1.323   3.455   
C  1.362   0.152   3.203   
C  1.666   -2.267  3.153   
C  1.149   2.582   3.225   
C  2.698   0.302   2.715   
C  2.970   -2.112  2.670   
H  1.294   -3.275  3.314   
C  2.459   2.719   2.753   
H  0.573   3.484   3.412   
C  3.241   1.597   2.492   
C  3.498   -0.843  2.446   
H  3.590   -2.980  2.463   
H  2.884   3.704   2.579   
C  4.624   1.763   1.974   
C  4.885   -0.698  1.931   
O  5.098   2.885   1.757   
N  5.383   0.603   1.714   
O  5.596   -1.686  1.710   
C  6.731   0.756   1.196   
C  7.613   1.665   1.799   
C  7.145   -0.002  0.091   
C  8.903   1.812   1.291   
H  7.292   2.251   2.655   
C  8.440   0.151   -0.402  
H  6.462   -0.705  -0.376  
C  9.319   1.057   0.193   
H  9.587   2.517   1.757   
H  10.327  1.175   -0.198  
H  8.762   -0.437  -1.258  
H  -8.612  -2.439  8.275   
H  -10.431 -1.193  7.131   
H  -9.892  0.338   5.251   
