168

O  -5.651  2.207   0.042   
O  -5.636  -2.344  -0.170  
N  -5.614  -0.067  -0.096  
C  -1.335  -0.057  -0.026  
C  -0.631  1.195   0.059   
C  -2.769  -0.061  -0.014  
C  -0.629  -1.308  -0.053  
C  -3.483  -1.295  -0.027  
C  -4.976  1.173   0.006   
C  -3.490  1.166   0.059   
C  -2.792  -2.489  0.118   
C  -1.382  -2.492  0.185   
C  -2.806  2.353   0.282   
C  -4.967  -1.308  -0.100  
H  -3.355  -3.414  0.195   
H  -3.376  3.260   0.459   
O  5.840   -2.323  -0.274  
O  5.844   2.194   0.290   
N  5.803   -0.070  0.072   
C  1.534   -0.057  -0.026  
C  0.828   -1.299  -0.183  
C  2.967   -0.059  -0.015  
C  0.831   1.195   -0.026  
C  3.685   1.171   0.048   
C  5.162   -1.296  -0.145  
C  3.682   -1.280  -0.191  
C  3.002   2.369   -0.152  
C  1.598   2.370   -0.279  
C  2.989   -2.428  -0.562  
C  5.162   1.166   0.145   
H  3.581   3.279   -0.281  
H  3.559   -3.300  -0.870  
C  1.582   -2.429  -0.604  
C  -1.396  2.360   0.347   
H  -6.633  -0.069  -0.136  
H  6.822   -0.075  0.109   
O  -0.733  -3.648  0.475   
O  0.953   3.435   -0.833  
O  0.929   -3.445  -1.249  
O  -0.772  3.465   0.843   
C  1.385   -4.744  -1.257  
C  1.026   -5.542  -2.355  
C  2.082   -5.297  -0.170  
C  1.387   -6.889  -2.367  
H  0.473   -5.105  -3.180  
C  2.429   -6.648  -0.198  
H  2.336   -4.687  0.690   
C  2.088   -7.446  -1.293  
H  1.117   -7.510  -3.217  
H  2.963   -7.076  0.647   
H  2.361   -8.496  -1.306  
C  -1.365  4.721   0.718   
C  -1.745  5.191   -0.548  
C  -1.478  5.527   1.854   
C  -2.237  6.491   -0.666  
H  -1.652  4.547   -1.418  
C  -1.978  6.823   1.717   
H  -1.223  5.128   2.830   
C  -2.347  7.309   0.461   
H  -2.530  6.867   -1.643  
H  -2.083  7.453   2.596   
H  -2.730  8.321   0.361   
C  -1.411  -4.712  1.073   
C  -2.059  -4.527  2.302   
C  -1.323  -5.974  0.475   
C  -2.639  -5.633  2.924   
H  -2.113  -3.537  2.750   
C  -1.911  -7.068  1.115   
H  -0.808  -6.096  -0.473  
C  -2.566  -6.899  2.337   
H  -3.146  -5.507  3.877   
H  -1.853  -8.052  0.659   
H  -3.020  -7.754  2.830   
C  1.447   4.723   -0.843  
C  2.116   5.273   0.260   
C  1.143   5.509   -1.965  
C  2.484   6.619   0.225   
H  2.335   4.662   1.132   
C  1.528   6.849   -1.984  
H  0.611   5.069   -2.802  
C  2.197   7.406   -0.891  
H  2.990   7.056   1.081   
H  1.298   7.462   -2.852  
H  2.489   8.452   -0.907  
O  -2.608  2.565   3.448   
O  -2.593  -1.985  3.237   
N  -2.571  0.291   3.311   
C  1.708   0.301   3.380   
C  2.412   1.553   3.466   
C  0.274   0.297   3.393   
C  2.414   -0.950  3.354   
C  -0.440  -0.937  3.380   
C  -1.933  1.531   3.413   
C  -0.448  1.524   3.466   
C  0.251   -2.130  3.525   
C  1.660   -2.133  3.592   
C  0.237   2.711   3.689   
C  -1.924  -0.949  3.307   
H  -0.312  -3.056  3.602   
H  -0.333  3.619   3.866   
O  8.883   -1.965  3.133   
O  8.887   2.552   3.697   
N  8.846   0.288   3.478   
C  4.577   0.301   3.380   
C  3.871   -0.940  3.224   
C  6.010   0.299   3.391   
C  3.874   1.553   3.380   
C  6.728   1.530   3.455   
C  8.205   -0.937  3.262   
C  6.725   -0.921  3.216   
C  6.044   2.728   3.255   
C  4.640   2.728   3.128   
C  6.032   -2.070  2.845   
C  8.205   1.524   3.552   
H  6.623   3.637   3.125   
H  6.602   -2.941  2.537   
C  4.625   -2.071  2.802   
C  1.647   2.719   3.754   
H  -3.590  0.289   3.271   
H  9.865   0.283   3.516   
O  2.310   -3.290  3.881   
O  3.995   3.793   2.574   
O  3.971   -3.087  2.158   
O  2.271   3.824   4.249   
C  4.428   -4.386  2.150   
C  4.069   -5.184  1.052   
C  5.125   -4.939  3.236   
C  4.430   -6.531  1.040   
H  3.515   -4.747  0.227   
C  5.472   -6.290  3.209   
H  5.379   -4.329  4.097   
C  5.130   -7.087  2.114   
H  4.160   -7.152  0.190   
H  6.006   -6.717  4.053   
H  5.404   -8.138  2.101   
C  1.678   5.079   4.124   
C  1.298   5.549   2.859   
C  1.564   5.885   5.261   
C  0.806   6.849   2.740   
H  1.391   4.905   1.989   
C  1.065   7.181   5.123   
H  1.820   5.487   6.237   
C  0.696   7.668   3.868   
H  0.513   7.225   1.764   
H  0.960   7.811   6.003   
H  0.313   8.679   3.767   
C  1.632   -4.354  4.480   
C  0.983   -4.169  5.709   
C  1.720   -5.616  3.882   
C  0.403   -5.275  6.331   
H  0.930   -3.179  6.157   
C  1.132   -6.709  4.522   
H  2.235   -5.737  2.934   
C  0.477   -6.541  5.744   
H  -0.104  -5.149  7.284   
H  1.190   -7.694  4.066   
H  0.023   -7.396  6.237   
C  4.490   5.081   2.564   
C  5.159   5.631   3.667   
C  4.186   5.868   1.442   
C  5.527   6.977   3.632   
H  5.377   5.020   4.538   
C  4.571   7.207   1.422   
H  3.653   5.427   0.604   
C  5.239   7.764   2.516   
H  6.033   7.415   4.488   
H  4.341   7.820   0.555   
H  5.532   8.810   2.500   
