102

C  0.569   -1.216  -0.042  
C  0.569   1.101   -0.043  
C  -1.437  -0.057  -0.043  
N  -0.769  -1.215  -0.042  
N  1.238   -0.057  -0.043  
N  -0.768  1.102   -0.043  
C  1.340   -2.550  -0.041  
C  2.741   -2.550  -0.041  
C  0.639   -3.764  -0.041  
C  3.441   -3.763  -0.041  
H  3.276   -1.623  -0.042  
C  1.339   -4.977  -0.040  
H  -0.431  -3.763  -0.041  
C  2.740   -4.977  -0.040  
H  4.511   -3.764  -0.041  
H  0.804   -5.903  -0.039  
C  -2.977  -0.057  -0.043  
C  -3.678  1.157   -0.045  
C  -3.677  -1.271  -0.042  
C  -5.079  1.156   -0.045  
H  -3.142  2.083   -0.045  
C  -5.079  -1.271  -0.042  
H  -3.143  -2.198  -0.042  
C  -5.780  -0.056  -0.043  
H  -5.614  2.084   -0.045  
H  -5.614  -2.197  -0.042  
C  1.340   2.435   -0.045  
C  0.640   3.648   -0.045  
C  2.741   2.435   -0.045  
C  1.341   4.862   -0.046  
H  -0.430  3.649   -0.045  
C  3.442   3.648   -0.045  
H  3.276   1.508   -0.044  
C  2.742   4.862   -0.046  
H  0.805   5.789   -0.047  
H  4.512   3.648   -0.045  
N  -7.250  -0.056  -0.043  
C  -7.946  0.884   0.664   
H  -7.716  -0.751  -0.566  
O  -7.372  1.766   1.327   
H  -9.055  0.797   0.597   
N  3.476   -6.250  -0.039  
C  4.637   -6.383  -0.747  
H  3.109   -7.001  0.485   
O  5.114   -5.447  -1.412  
H  5.117   -7.387  -0.680  
N  3.477   6.135   -0.046  
C  4.639   6.268   0.662   
H  3.110   6.885   -0.570  
O  5.114   5.331   1.327   
H  5.118   7.272   0.596   
C  0.043   -1.392  3.249   
C  1.236   0.593   3.248   
C  -1.080  0.634   3.248   
N  -1.104  -0.703  3.249   
N  1.213   -0.744  3.248   
N  0.091   1.283   3.248   
C  0.016   -2.933  3.250   
C  1.216   -3.655  3.250   
C  -1.210  -3.612  3.251   
C  1.191   -5.055  3.251   
H  2.152   -3.135  3.249   
C  -1.235  -5.012  3.252   
H  -2.127  -3.060  3.251   
C  -0.035  -5.735  3.252   
H  2.108   -5.607  3.251   
H  -2.172  -5.530  3.252   
C  -2.400  1.428   3.248   
C  -2.375  2.830   3.247   
C  -3.626  0.749   3.249   
C  -3.576  3.551   3.247   
H  -1.439  3.348   3.246   
C  -4.827  1.471   3.249   
H  -3.645  -0.321  3.250   
C  -4.802  2.873   3.248   
H  -3.557  4.622   3.246   
H  -5.763  0.953   3.249   
C  2.584   1.340   3.247   
C  2.609   2.740   3.246   
C  3.785   0.618   3.247   
C  3.835   3.420   3.245   
H  1.692   3.292   3.246   
C  5.010   1.296   3.246   
H  3.766   -0.452  3.248   
C  5.036   2.697   3.245   
H  3.854   4.490   3.245   
H  5.928   0.745   3.246   
N  -6.061  3.630   3.248   
C  -6.174  4.795   3.956   
H  -6.819  3.275   2.726   
O  -5.228  5.255   4.618   
H  -7.169  5.291   3.889   
N  -0.061  -7.204  3.252   
C  0.866   -7.917  2.544   
H  -0.762  -7.659  3.776   
O  1.757   -7.360  1.880   
H  0.760   -9.024  2.611   
N  6.322   3.409   3.245   
C  7.386   2.925   3.954   
H  6.394   4.242   2.721   
O  7.311   1.877   4.618   
H  8.314   3.538   3.887   
