188

O  -5.722  2.387   -0.018  
O  -5.713  -2.206  0.009   
N  -5.716  0.091   -0.052  
C  -1.441  0.096   -0.043  
C  -0.742  1.346   -0.045  
C  -2.875  0.095   -0.040  
C  -0.742  -1.153  -0.046  
C  -3.586  -1.132  -0.034  
C  -5.069  1.340   -0.035  
C  -3.589  1.320   -0.038  
C  -2.887  -2.333  -0.034  
C  -1.489  -2.340  -0.041  
C  -2.890  2.522   -0.040  
C  -5.065  -1.156  -0.022  
C  -7.190  0.090   -0.012  
H  -3.455  -3.262  -0.027  
H  -0.982  -3.302  -0.041  
H  -3.460  3.450   -0.036  
H  -7.519  -0.819  -0.527  
H  -7.522  0.974   -0.569  
O  5.695   -2.207  -0.056  
O  5.700   2.388   -0.025  
N  5.697   0.089   0.017   
C  1.422   0.096   -0.043  
C  0.723   -1.153  -0.052  
C  2.855   0.095   -0.034  
C  0.723   1.346   -0.043  
C  3.570   1.319   -0.025  
C  5.046   -1.157  -0.028  
C  3.567   -1.132  -0.039  
C  2.871   2.522   -0.032  
C  1.473   2.531   -0.040  
C  2.867   -2.334  -0.058  
C  5.050   1.339   -0.013  
C  7.172   0.080   0.003   
H  3.439   3.450   -0.029  
H  0.967   3.494   -0.043  
H  3.435   -3.263  -0.067  
H  7.497   1.005   0.491   
H  7.490   -0.785  0.596   
C  1.469   -2.340  -0.063  
C  -1.492  2.531   -0.045  
H  0.961   -3.301  -0.077  
H  -0.987  3.493   -0.048  
C  7.725   -0.013  -1.423  
H  7.315   -0.914  -1.902  
H  7.368   0.850   -2.003  
C  -7.720  0.123   1.424   
H  -7.323  1.017   1.928   
H  -7.334  -0.751  1.968   
C  -9.252  0.136   1.466   
H  -9.629  0.994   0.889   
H  -9.644  -0.759  0.960   
C  9.258   -0.067  -1.444  
H  9.605   -0.904  -0.819  
H  9.670   0.842   -0.981  
C  -9.802  0.201   2.897   
H  -9.407  1.098   3.398   
H  -9.417  -0.651  3.478   
C  -11.335 0.213   2.958   
H  -11.720 1.058   2.366   
H  -11.730 -0.691  2.469   
C  -11.875 0.304   4.391   
H  -11.466 1.201   4.880   
H  -11.498 -0.546  4.980   
C  9.817   -0.225  -2.865  
H  9.393   -1.133  -3.321  
H  9.466   0.608   -3.493  
C  11.349  -0.297  -2.914  
H  11.699  -1.116  -2.267  
H  11.777  0.619   -2.480  
C  11.894  -0.499  -4.335  
H  11.463  -1.418  -4.763  
H  11.542  0.317   -4.984  
C  -13.407 0.338   4.461   
H  -13.784 1.186   3.868   
H  -13.821 -0.559  3.977   
C  -13.944 0.441   5.897   
H  -13.525 1.338   6.377   
H  -13.566 -0.408  6.486   
C  -15.477 0.481   5.961   
H  -15.877 1.339   5.403   
H  -15.919 -0.425  5.523   
C  13.426  -0.579  -4.391  
H  13.776  -1.383  -3.725  
H  13.860  0.345   -3.980  
C  13.973  -0.816  -5.806  
H  13.518  -1.726  -6.223  
H  13.646  0.001   -6.466  
C  15.503  -0.937  -5.839  
H  15.850  -1.774  -5.217  
H  15.986  -0.028  -5.454  
H  -15.844 0.560   6.994   
H  15.882  -1.105  -6.857  
O  -3.768  4.923   3.479   
O  -6.052  0.938   3.506   
N  -4.909  2.930   3.445   
C  -1.201  0.802   3.453   
C  0.028   1.537   3.452   
C  -2.444  1.517   3.457   
C  -1.219  -0.629  3.451   
C  -3.672  0.809   3.463   
C  -3.724  3.690   3.462   
C  -2.452  2.934   3.458   
C  -3.666  -0.582  3.463   
C  -2.458  -1.285  3.456   
C  -1.247  3.628   3.457   
C  -4.967  1.525   3.474   
C  -6.186  3.665   3.484   
H  -4.622  -1.103  3.470   
H  -2.498  -2.371  3.456   
H  -1.277  4.716   3.461   
H  -6.925  3.042   2.970   
H  -6.033  4.596   2.928   
O  3.835   -4.754  3.441   
O  6.131   -0.774  3.472   
N  4.982   -2.765  3.514   
C  1.280   -0.626  3.453   
C  0.051   -1.360  3.445   
C  2.522   -1.343  3.462   
C  1.298   0.806   3.453   
C  3.752   -0.638  3.471   
C  3.796   -3.520  3.468   
C  2.526   -2.760  3.457   
C  3.746   0.753   3.465   
C  2.539   1.459   3.457   
C  1.320   -3.453  3.439   
C  5.044   -1.359  3.484   
C  6.256   -3.509  3.500   
H  4.702   1.274   3.467   
H  2.581   2.545   3.454   
H  1.349   -4.541  3.430   
H  6.999   -2.869  3.988   
H  6.100   -4.417  4.093   
C  0.106   -2.761  3.433   
C  -0.030  2.938   3.452   
H  -0.814  -3.340  3.420   
H  0.888   3.520   3.449   
C  6.688   -3.866  2.074   
H  5.883   -4.441  1.595   
H  6.810   -2.940  1.494   
C  -6.628  3.958   4.921   
H  -5.839  4.535   5.425   
H  -6.730  3.008   5.465   
C  -7.950  4.734   4.963   
H  -7.849  5.666   4.386   
H  -8.737  4.154   4.457   
C  7.990   -4.677  2.052   
H  7.873   -5.576  2.677   
H  8.801   -4.095  2.516   
C  -8.394  5.065   6.394   
H  -7.605  5.645   6.895   
H  -8.486  4.134   6.975   
C  -9.717  5.840   6.455   
H  -9.629  6.764   5.862   
H  -10.511 5.254   5.966   
C  -10.140 6.188   7.888   
H  -9.338  6.761   8.377   
H  -10.237 5.263   8.477   
C  8.395   -5.093  0.632   
H  7.575   -5.668  0.175   
H  8.507   -4.196  0.003   
C  9.687   -5.920  0.583   
H  9.582   -6.804  1.230   
H  10.515  -5.339  1.016   
C  10.059  -6.367  -0.838  
H  9.227   -6.948  -1.266  
H  10.161  -5.484  -1.487  
C  -11.451 6.983   7.958   
H  -11.354 7.905   7.365   
H  -12.257 6.411   7.474   
C  -11.864 7.339   9.394   
H  -11.054 7.907   9.874   
H  -11.961 6.415   9.983   
C  -13.173 8.139   9.458   
H  -13.092 9.082   8.899   
H  -14.008 7.575   9.019   
C  11.347  -7.200  -0.894  
H  11.249  -8.072  -0.229  
H  12.184  -6.616  -0.483  
C  11.703  -7.679  -2.309  
H  10.854  -8.240  -2.726  
H  11.826  -6.808  -2.969  
C  12.968  -8.547  -2.343  
H  12.851  -9.445  -1.721  
H  13.840  -8.000  -1.957  
H  -13.451 8.390   10.491  
H  13.213  -8.882  -3.361  
