120

C  -9.313  -0.816  0.789   
C  -7.920  -0.809  0.849   
C  -9.984  -0.019  -0.140  
C  -7.194  -0.001  -0.038  
H  -7.401  -1.426  1.576   
C  -9.257  0.790   -1.016  
N  -5.742  0.001   0.007   
C  -7.863  0.801   -0.974  
C  -5.066  -1.237  0.043   
C  -5.066  1.239   0.007   
H  -7.301  1.425   -1.660  
O  -5.700  -2.299  0.032   
C  -3.580  -1.225  0.069   
C  -3.580  1.228   0.030   
O  -5.702  2.300   0.000   
C  -2.878  -2.428  0.094   
C  -2.861  0.002   0.056   
C  -2.878  2.431   0.026   
C  -1.478  -2.437  0.099   
H  -3.438  -3.359  0.104   
C  -1.431  0.001   0.067   
C  -1.477  2.440   0.043   
H  -3.436  3.363   0.009   
C  -0.733  -1.249  0.081   
H  -0.971  -3.397  0.115   
C  -0.733  1.251   0.061   
H  -0.970  3.399   0.039   
C  0.733   -1.250  0.071   
C  0.733   1.251   0.068   
C  1.431   0.000   0.065   
C  1.478   -2.438  0.063   
C  1.479   2.439   0.070   
C  2.860   -0.000  0.052   
C  2.877   -2.429  0.045   
H  0.970   -3.399  0.068   
C  2.878   2.430   0.063   
H  0.972   3.399   0.076   
C  3.579   1.227   0.052   
C  3.580   -1.226  0.037   
H  3.436   -3.361  0.035   
H  3.438   3.361   0.064   
C  5.066   1.238   0.027   
C  5.066   -1.237  0.017   
O  5.699   2.300   0.005   
N  5.742   0.001   0.007   
O  5.702   -2.298  0.022   
C  7.194   0.003   -0.029  
C  7.914   0.820   0.852   
C  7.869   -0.812  -0.951  
C  9.308   0.822   0.806   
H  7.391   1.448   1.566   
C  9.263   -0.803  -0.982  
H  7.311   -1.443  -1.635  
C  9.984   0.012   -0.108  
H  9.867   1.456   1.488   
H  11.071  0.015   -0.140  
H  9.788   -1.434  -1.696  
H  -9.876  -1.445  1.474   
H  -11.070 -0.027  -0.181  
H  -9.778  1.412   -1.740  
C  -9.294  1.005   4.161   
C  -7.926  0.742   4.221   
C  -9.798  1.917   3.231   
C  -7.058  1.394   3.334   
H  -7.537  0.036   4.947   
C  -8.929  2.569   2.355   
N  -5.633  1.114   3.379   
C  -7.559  2.310   2.397   
C  -5.210  -0.231  3.414   
C  -4.730  2.197   3.379   
H  -6.886  2.813   1.711   
O  -6.038  -1.150  3.403   
C  -3.750  -0.508  3.440   
C  -3.274  1.898   3.401   
O  -5.148  3.362   3.371   
C  -3.294  -1.824  3.465   
C  -2.806  0.556   3.427   
C  -2.352  2.942   3.397   
C  -1.923  -2.105  3.470   
H  -4.024  -2.629  3.475   
C  -1.404  0.278   3.438   
C  -0.977  2.680   3.414   
H  -2.719  3.965   3.380   
C  -0.961  -1.084  3.452   
H  -1.612  -3.145  3.486   
C  -0.476  1.370   3.432   
H  -0.293  3.523   3.410   
C  0.477   -1.368  3.442   
C  0.962   1.085   3.439   
C  1.404   -0.277  3.436   
C  0.977   -2.678  3.434   
C  1.923   2.106   3.441   
C  2.806   -0.555  3.423   
C  2.351   -2.941  3.416   
H  0.293   -3.523  3.439   
C  3.294   1.826   3.434   
H  1.612   3.146   3.447   
C  3.749   0.510   3.423   
C  3.274   -1.897  3.408   
H  2.720   -3.964  3.406   
H  4.024   2.631   3.435   
C  5.210   0.233   3.398   
C  4.730   -2.195  3.389   
O  6.037   1.152   3.376   
N  5.633   -1.112  3.379   
O  5.148   -3.359  3.393   
C  7.058   -1.392  3.342   
C  7.922   -0.730  4.224   
C  7.563   -2.322  2.420   
C  9.291   -0.998  4.177   
H  7.532   -0.012  4.937   
C  8.932   -2.583  2.389   
H  6.893   -2.832  1.736   
C  9.797   -1.924  3.263   
H  9.962   -0.484  4.860   
H  10.864  -2.131  3.231   
H  9.324   -3.304  1.676   
H  -9.969  0.497   4.845   
H  -10.865 2.119   3.190   
H  -9.319  3.280   1.631   
