120

C  -9.313  -0.816  0.789   
C  -7.920  -0.809  0.849   
C  -9.984  -0.019  -0.140  
C  -7.194  -0.001  -0.038  
H  -7.401  -1.426  1.576   
C  -9.257  0.790   -1.016  
N  -5.742  0.001   0.007   
C  -7.863  0.801   -0.974  
C  -5.066  -1.237  0.043   
C  -5.066  1.239   0.007   
H  -7.301  1.425   -1.660  
O  -5.700  -2.299  0.032   
C  -3.580  -1.225  0.069   
C  -3.580  1.228   0.030   
O  -5.702  2.300   0.000   
C  -2.878  -2.428  0.094   
C  -2.861  0.002   0.056   
C  -2.878  2.431   0.026   
C  -1.478  -2.437  0.099   
H  -3.438  -3.359  0.104   
C  -1.431  0.001   0.067   
C  -1.477  2.440   0.043   
H  -3.436  3.363   0.009   
C  -0.733  -1.249  0.081   
H  -0.971  -3.397  0.115   
C  -0.733  1.251   0.061   
H  -0.970  3.399   0.039   
C  0.733   -1.250  0.071   
C  0.733   1.251   0.068   
C  1.431   0.000   0.065   
C  1.478   -2.438  0.063   
C  1.479   2.439   0.070   
C  2.860   -0.000  0.052   
C  2.877   -2.429  0.045   
H  0.970   -3.399  0.068   
C  2.878   2.430   0.063   
H  0.972   3.399   0.076   
C  3.579   1.227   0.052   
C  3.580   -1.226  0.037   
H  3.436   -3.361  0.035   
H  3.438   3.361   0.064   
C  5.066   1.238   0.027   
C  5.066   -1.237  0.017   
O  5.699   2.300   0.005   
N  5.742   0.001   0.007   
O  5.702   -2.298  0.022   
C  7.194   0.003   -0.029  
C  7.914   0.820   0.852   
C  7.869   -0.812  -0.951  
C  9.308   0.822   0.806   
H  7.391   1.448   1.566   
C  9.263   -0.803  -0.982  
H  7.311   -1.443  -1.635  
C  9.984   0.012   -0.108  
H  9.867   1.456   1.488   
H  11.071  0.015   -0.140  
H  9.788   -1.434  -1.696  
H  -9.876  -1.445  1.474   
H  -11.070 -0.027  -0.181  
H  -9.778  1.412   -1.740  
C  -9.298  0.964   4.177   
C  -7.929  0.707   4.237   
C  -9.807  1.874   3.248   
C  -7.064  1.363   3.350   
H  -7.537  0.003   4.964   
C  -8.940  2.531   2.372   
N  -5.638  1.089   3.395   
C  -7.569  2.277   2.414   
C  -5.209  -0.254  3.431   
C  -4.739  2.177   3.395   
H  -6.898  2.783   1.728   
O  -6.033  -1.177  3.420   
C  -3.747  -0.524  3.457   
C  -3.282  1.884   3.417   
O  -5.162  3.339   3.388   
C  -3.286  -1.838  3.482   
C  -2.809  0.544   3.444   
C  -2.365  2.932   3.414   
C  -1.914  -2.113  3.487   
H  -4.013  -2.646  3.492   
C  -1.405  0.272   3.455   
C  -0.988  2.675   3.431   
H  -2.737  3.953   3.397   
C  -0.957  -1.088  3.469   
H  -1.598  -3.152  3.503   
C  -0.482  1.368   3.449   
H  -0.308  3.522   3.427   
C  0.483   -1.366  3.459   
C  0.957   1.090   3.456   
C  1.405   -0.271  3.453   
C  0.989   -2.674  3.451   
C  1.914   2.115   3.458   
C  2.808   -0.542  3.440   
C  2.364   -2.931  3.433   
H  0.309   -3.521  3.456   
C  3.286   1.840   3.451   
H  1.598   3.153   3.464   
C  3.747   0.526   3.440   
C  3.282   -1.883  3.425   
H  2.737   -3.952  3.423   
H  4.012   2.648   3.452   
C  5.209   0.255   3.415   
C  4.740   -2.175  3.405   
O  6.032   1.178   3.393   
N  5.638   -1.087  3.395   
O  5.163   -3.337  3.410   
C  7.064   -1.361  3.358   
C  7.926   -0.695  4.240   
C  7.573   -2.289  2.437   
C  9.295   -0.957  4.193   
H  7.532   0.020   4.954   
C  8.943   -2.544  2.406   
H  6.905   -2.802  1.753   
C  9.805   -1.881  3.280   
H  9.964   -0.441  4.876   
H  10.873  -2.083  3.248   
H  9.338   -3.264  1.692   
H  -9.971  0.454   4.861   
H  -10.874 2.072   3.207   
H  -9.333  3.240   1.647   
