 60
 generated by VMD
 C         9.313000       -0.821000       -0.780000
 C         7.920000       -0.814000       -0.841000
 C         9.984000       -0.020000        0.146000
 C         7.194000       -0.002000        0.042000
 H         7.402000       -1.434000       -1.565000
 C         9.257000        0.793000        1.018000
 N         5.742000       -0.000000       -0.004000
 C         7.863000        0.804000        0.975000
 C         5.066000       -1.238000       -0.034000
 C         5.066000        1.238000       -0.010000
 H         7.300000        1.431000        1.658000
 O         5.700000       -2.300000       -0.018000
 C         3.580000       -1.226000       -0.061000
 C         3.580000        1.227000       -0.033000
 O         5.702000        2.299000       -0.007000
 C         2.878000       -2.429000       -0.081000
 C         2.861000        0.001000       -0.054000
 C         2.878000        2.430000       -0.035000
 C         1.478000       -2.438000       -0.087000
 H         3.438000       -3.360000       -0.087000
 C         1.431000        0.000000       -0.066000
 C         1.478000        2.439000       -0.053000
 H         3.437000        3.362000       -0.022000
 C         0.733000       -1.250000       -0.075000
 H         0.971000       -3.398000       -0.099000
 C         0.733000        1.251000       -0.066000
 H         0.971000        3.399000       -0.054000
 C        -0.733000       -1.250000       -0.066000
 C        -0.733000        1.251000       -0.074000
 C        -1.431000        0.000000       -0.066000
 C        -1.478000       -2.438000       -0.053000
 C        -1.478000        2.439000       -0.082000
 C        -2.860000        0.000000       -0.054000
 C        -2.877000       -2.429000       -0.036000
 H        -0.971000       -3.399000       -0.053000
 C        -2.877000        2.430000       -0.076000
 H        -0.971000        3.399000       -0.092000
 C        -3.579000        1.227000       -0.060000
 C        -3.580000       -1.226000       -0.034000
 H        -3.437000       -3.361000       -0.022000
 H        -3.437000        3.361000       -0.081000
 C        -5.066000        1.239000       -0.036000
 C        -5.066000       -1.236000       -0.015000
 O        -5.699000        2.301000       -0.019000
 N        -5.742000        0.002000       -0.011000
 O        -5.702000       -2.297000       -0.015000
 C        -7.194000        0.004000        0.025000
 C        -7.913000        0.817000       -0.861000
 C        -7.870000       -0.806000        0.950000
 C        -9.307000        0.820000       -0.815000
 H        -7.390000        1.442000       -1.577000
 C        -9.264000       -0.797000        0.980000
 H        -7.312000       -1.434000        1.637000
 C        -9.984000        0.014000        0.102000
 H        -9.866000        1.451000       -1.501000
 H       -11.071000        0.018000        0.133000
 H        -9.789000       -1.425000        1.696000
 H         9.877000       -1.453000       -1.461000
 H        11.070000       -0.028000        0.188000
 H         9.777000        1.418000        1.740000
