24

 O                  0.31260000    3.64150000   -0.01380000
 O                 -3.31000000   -1.54950000   -0.01320000
 O                  2.99740000   -2.09160000   -0.01370000
 N                 -1.93050000    3.16510000    0.00240000
 N                 -1.77630000   -3.25440000    0.00150000
 N                  3.70650000    0.08930000    0.00270000
 C                 -0.28920000    1.36450000    0.00390000
 C                 -1.03700000   -0.93290000    0.00460000
 C                  1.32650000   -0.43190000    0.00390000
 C                 -1.32620000    0.43160000    0.00430000
 C                  1.03730000    0.93280000    0.00370000
 C                  0.28930000   -1.36460000    0.00430000
 C                 -0.59090000    2.78720000    0.00300000
 C                 -2.11840000   -1.90520000    0.00310000
 C                  2.70910000   -0.88180000    0.00310000
 H                 -2.36980000    0.72090000    0.00390000
 H                  1.80960000    1.69190000    0.00300000
 H                  0.56050000   -2.41310000    0.00420000
 H                 -2.72780000    2.54280000    0.01140000
 H                 -2.16570000    4.15290000   -0.00540000
 H                 -0.83880000   -3.63390000    0.00990000
 H                 -2.51440000   -3.95160000   -0.00660000
 H                  3.56640000    1.09100000    0.01200000
 H                  4.67940000   -0.20120000   -0.00480000

