92

C  2.827   0.999   0.001   
C  1.426   1.017   0.001   
C  0.717   -0.211  -0.000  
C  1.426   -1.441  0.000   
C  2.827   -1.423  0.001   
C  0.678   2.247   0.000   
C  -0.717  -0.212  0.000   
C  -1.426  1.018   -0.000  
C  -0.678  2.248   -0.000  
C  -2.827  1.000   -0.001  
H  -3.383  1.949   -0.000  
C  -2.827  -1.422  -0.001  
C  -1.426  -1.440  -0.001  
C  -0.678  -2.670  -0.000  
C  0.678   -2.671  -0.000  
H  1.247   -3.614  -0.000  
H  -1.247  -3.613  -0.000  
H  1.247   3.190   0.000   
H  3.383   1.948   0.000   
H  3.383   -2.372  0.000   
H  -1.247  3.191   0.000   
H  -3.383  -2.371  -0.000  
C  -5.056  -0.211  -0.001  
H  -5.413  0.662   0.504   
H  -5.413  -1.086  0.504   
C  5.056   -0.212  0.001   
H  5.413   0.663   -0.504  
H  5.413   -1.085  -0.504  
C  -5.569  -0.211  -1.452  
C  5.569   -0.212  1.452   
O  -4.755  -0.211  -2.413  
O  4.755   -0.212  2.413   
N  7.014   -0.212  1.718   
H  7.258   -1.029  2.241   
N  -7.014  -0.211  -1.718  
H  -7.258  -1.028  -2.241  
C  -7.371  0.991   -2.486  
H  -6.940  0.931   -3.463  
H  -8.436  1.057   -2.570  
H  -6.999  1.859   -1.984  
C  7.372   0.990   2.486   
H  6.939   0.930   3.463   
H  8.436   1.055   2.571   
H  7.000   1.858   1.984   
N  -3.516  -0.211  -0.000  
N  3.516   -0.211  -0.000  
C  0.206   2.540   3.308   
C  -1.195  2.552   3.308   
C  -1.899  1.320   3.308   
C  -1.184  0.094   3.308   
C  0.217   0.118   3.308   
C  -1.949  3.779   3.308   
C  -3.333  1.314   3.308   
C  -4.048  2.540   3.307   
C  -3.305  3.773   3.308   
C  -5.448  2.516   3.307   
H  -6.008  3.462   3.308   
C  -5.438  0.094   3.307   
C  -4.037  0.082   3.307   
C  -3.283  -1.145  3.307   
C  -1.927  -1.139  3.308   
H  -1.354  -2.079  3.308   
H  -3.848  -2.090  3.307   
H  -1.384  4.724   3.308   
H  0.758   3.492   3.308   
H  0.776   -0.828  3.308   
H  -3.877  4.714   3.308   
H  -5.989  -0.857  3.307   
C  -7.672  1.295   3.307   
H  -8.032  2.168   3.811   
H  -8.025  0.420   3.811   
C  2.440   1.339   3.308   
H  2.793   2.215   2.804   
H  2.801   0.467   2.804   
C  -8.185  1.293   1.855   
C  2.953   1.341   4.760   
O  -7.371  1.297   0.895   
O  2.139   1.338   5.720   
N  4.398   1.347   5.026   
H  4.645   0.531   5.549   
N  -9.630  1.287   1.590   
H  -9.870  0.469   1.066   
C  -9.993  2.487   0.821   
H  -9.561  2.429   -0.155  
H  -11.058 2.549   0.737   
H  -9.624  3.357   1.323   
C  4.750   2.551   5.794   
H  4.318   2.489   6.771   
H  5.815   2.620   5.879   
H  4.375   3.417   5.291   
N  -6.132  1.302   3.308   
N  0.900   1.332   3.308   
