60   

C 4.10852990 8.24543221 5.82491138
C 3.66748048 6.92352423 5.76505377
C 3.56434636 9.12969240 6.75802661
C 2.67804075 6.48437918 6.65611705
H 4.08914576 6.23968111 5.03561236
C 2.57395801 8.68996966 7.63818892
N 2.22403301 5.10503436 6.61060285
C 2.12906820 7.36867529 7.59581659
C 3.18938080 4.07781828 6.56992086
C 0.83744534 4.84867207 6.61719496
H 1.36371716 7.02739967 8.28536561
O 4.39610615 4.34961419 6.57524387
C 2.71568772 2.66879850 6.54394467
C 0.38416733 3.43263299 6.59480309
O 0.02719545 5.78327064 6.62904610
C 3.63968291 1.62744307 6.51364414
C 1.32593956 2.36730892 6.56290005
C -0.97718765 3.13970490 6.60423169
C 3.21267224 0.29479715 6.50852112
H 4.69900417 1.86951712 6.49819931
C 0.88095246 1.00891907 6.55230812
C -1.42156792 1.81278270 6.58736769
H -1.68826644 3.96115050 6.62618366
C 1.85232000 -0.04354187 6.53171942
H 3.96728763 -0.48622289 6.48781455
C -0.52491342 0.73527359 6.56451478
H -2.49223795 1.62964745 6.59576752
C 1.39591780 -1.43717627 6.54141042
C -0.98151473 -0.65824859 6.55749885
C -0.00995612 -1.71072390 6.55431780
C 2.29267594 -2.51484773 6.54373856
C -2.34208588 -0.99628355 6.56041558
C -0.45488404 -3.06914954 6.56693285
C 1.84847883 -3.84189393 6.56231881
H 3.36336029 -2.33182316 6.53433487
C -2.76910074 -2.32893533 6.56741259
H -3.09692616 -0.21519647 6.55920563
C -1.84474060 -3.37037704 6.57341529
C 0.48712875 -4.13469479 6.57573962
H 2.55970665 -4.66351147 6.56757584
H -3.82849187 -2.57098450 6.57228225
C -2.31817593 -4.77941275 6.59858704
C 0.03403216 -5.55085558 6.59632404
O -3.52467165 -5.05107736 6.62522355
N -1.35262904 -5.80707344 6.61231405
O 0.84440635 -6.48536003 6.58650310
C -1.80615086 -7.18675206 6.64945750
C -2.81132196 -7.61515662 5.77070873
C -1.23921990 -8.08291093 7.56701982  
C -3.24716095 -8.93924786 5.81811678
H -3.24863073 -6.92123707 5.06020617
C -1.68074437 -9.40556826 7.59842126
H -0.46187955 -7.75022619 8.24725446
C -2.68413865 -9.83557219 6.72830041
H -4.02758130 -9.27239594 5.13877277
H -3.02629723 -10.86675425 6.75942414
H -1.24187299 -10.10156921 8.30877186
H 4.87853558 8.58620818 5.13761329
H 3.91076312 10.15912479 6.79886176
H 2.14831180 9.37720983 8.36491879
