33

C          1.2737107623       -0.5587546145        0.0281772583
C          0.1556505675       -1.3662102606        0.1865723554
C         -1.1252308629       -0.8226802306        0.1432625363
C         -1.2829668298        0.5463616639       -0.0165278933
C         -0.1717040484        1.3723613375       -0.1579562271
C          1.0965713891        0.8111250787       -0.1559376869
H          0.2173792556       -2.4326288875        0.3466923104
H         -2.2543322477        1.0190645974       -0.0142743122
H          1.9888585689        1.4003607756       -0.3116343825
C          2.6943461302       -1.0385062503        0.0461500290
C         -2.2678826348       -1.7767785031        0.3071583205
C         -0.4348515734        2.8344847508       -0.3458106789
O          3.6232556365       -0.2583705692       -0.0705509307
O         -1.4969145019        3.2387103115       -0.7830427735
O         -2.1310501490       -2.8450420730        0.8748044847
N          2.8772506754       -2.3661015880        0.1998229566
N          0.5727522652        3.6543759090        0.0193077820
N         -3.4357389237       -1.3745771144       -0.2366215499
H          2.0865838422       -2.9790778978        0.3055547050
H          1.4171005842        3.2676391531        0.4083508012
H         -3.4791372964       -0.5051044026       -0.7426883721
C          4.1885189299       -2.9627207746        0.2470341181
C          0.4853131573        5.0879791249       -0.1007221507
C         -4.6319921313       -2.1766008225       -0.1793662338
H          4.3088260516       -3.6911306572       -0.5571068309
H          4.3527948464       -3.4579607127        1.2060196518
H         -0.4974580949        5.3224728798       -0.5066928222
H          0.5985809265        5.5649843083        0.8744690859
H         -5.4360665613       -1.6316027962        0.3183796443
H         -4.9585352358       -2.4586100772       -1.1822966025
H         -4.3964109081       -3.0746357279        0.3896675360
H          1.2556087047        5.4661502817       -0.7755944333
H          4.9172324888       -2.1631710169        0.1232866241
