33

C          1.1773328845       -0.7485959246       -0.0520620658
C         -0.0621074846       -1.3844190239       -0.0540647728
C         -1.2375513286       -0.6478746091       -0.0392632537
C         -1.1682446972        0.7435015204       -0.0369045498
C          0.0569468382        1.3942514312       -0.0385803486
C          1.2267958678        0.6376240423       -0.0508534173
H         -0.0468460450       -2.4638618814       -0.0958847036
H         -2.1125387874        1.2678034239       -0.0596283447
H          2.1539342181        1.1910395678       -0.0883649137
C          2.3790167927       -1.6440873193       -0.0772315184
C         -2.6148408862       -1.2391786759       -0.0516144884
C          0.2370573212        2.8826165895       -0.0477480146
O          2.2759523065       -2.8331860527       -0.3216830608
O          1.3338732441        3.3839175337       -0.2226321940
O         -3.5954268042       -0.5514294123       -0.2750803411
N          3.5601110157       -1.0573242048        0.2066469999
N         -0.8734292750        3.6180636798        0.1651845045
N         -2.6955874762       -2.5585300954        0.2177322709
H          3.5971469680       -0.0755016073        0.4243798799
H         -1.7588864485        3.1654529268        0.3188325179
H         -1.8616758192       -3.0860080144        0.4152970586
C          4.8026086048       -1.7877577716        0.2129667565
C         -0.8534395578        5.0592163096        0.1758473186
C         -3.9502080397       -3.2678449870        0.2307989755
H          5.2698344002       -1.7458077686        1.1987405445
H          5.4929394989       -1.3798779383       -0.5278320272
H          0.1725768519        5.3741230088       -0.0079778853
H         -1.5012655825        5.4591660498       -0.6064711665
H         -4.1347876550       -3.7069197545        1.2130922666
H         -4.7353355537       -2.5488411477        0.0022173097
H         -3.9532460096       -4.0591847069       -0.5211982081
H         -1.1827650536        5.4422298381        1.1436959466
H          4.5751643007       -2.8230674605       -0.0361794393
