168

O  -5.723  2.300   -0.034  6.545   
O  -5.727  -2.278  0.021   6.542   
N  -5.729  0.011   -0.013  5.137   
C  -5.070  1.246   -0.015  3.500   
C  -3.584  1.240   -0.009  4.080   
C  -2.882  2.441   -0.015  4.048   
H  -3.440  3.373   -0.025  0.887   
C  -1.482  2.449   -0.008  4.102   
H  -0.974  3.409   -0.013  0.912   
C  -0.739  1.261   0.006   3.966   
C  -1.438  0.010   0.012   3.986   
C  -0.739  -1.241  0.023   3.966   
C  -1.483  -2.429  0.037   4.102   
H  -0.975  -3.389  0.051   0.912   
C  -2.883  -2.421  0.035   4.048   
H  -3.441  -3.353  0.046   0.887   
C  -3.585  -1.219  0.017   4.080   
C  -5.072  -1.225  0.014   3.501   
C  -2.867  0.010   0.007   3.986   
O  5.713   -2.280  -0.002  6.544   
O  5.715   2.298   -0.003  6.544   
N  5.718   0.009   -0.000  5.137   
C  5.059   -1.225  -0.004  3.500   
C  3.573   -1.219  0.004   4.080   
C  2.871   -2.421  0.004   4.048   
H  3.430   -3.353  -0.001  0.887   
C  1.471   -2.429  0.011   4.102   
H  0.963   -3.389  0.012   0.912   
C  0.728   -1.241  0.016   3.966   
C  1.426   0.010   0.012   3.986   
C  0.728   1.261   0.012   3.966   
C  1.472   2.449   0.016   4.102   
H  0.963   3.409   0.020   0.912   
C  2.871   2.441   0.014   4.048   
H  3.429   3.374   0.017   0.887   
C  3.574   1.240   0.008   4.080   
C  5.060   1.245   -0.003  3.501   
C  2.856   0.010   0.008   3.986   
C  -7.213  0.011   0.038   4.005   
H  -7.557  0.902   -0.501  0.914   
H  -7.559  -0.888  -0.484  0.915   
C  7.201   0.008   -0.056  4.005   
H  7.548   0.913   0.456   0.914   
H  7.548   -0.878  0.490   0.915   
C  -7.698  0.023   1.478   3.987   
C  -8.005  -1.174  2.134   4.138   
C  -7.798  1.232   2.177   4.144   
C  -8.419  -1.169  3.472   3.959   
H  -7.915  -2.116  1.600   0.902   
C  -8.205  1.259   3.518   3.958   
H  -7.548  2.161   1.671   0.896   
C  -8.522  0.051   4.174   3.998   
C  7.686   -0.020  -1.497  3.988   
C  7.921   1.174   -2.187  4.140   
C  7.868   -1.240  -2.158  4.141   
C  8.343   1.156   -3.522  3.959   
H  7.770   2.124   -1.681  0.900   
C  8.288   -1.281  -3.495  3.958   
H  7.675   -2.168  -1.626  0.898   
C  8.531   -0.076  -4.186  3.998   
C  -8.745  -2.470  4.154   4.251   
H  -8.115  -2.626  5.031   0.915   
H  -9.780  -2.487  4.501   0.915   
H  -8.601  -3.312  3.481   0.917   
C  -8.964  0.029   5.615   4.253   
H  -9.939  -0.451  5.717   0.914   
H  -8.267  -0.543  6.229   0.915   
H  -9.038  1.027   6.036   0.918   
C  -8.286  2.588   4.224   4.252   
H  -9.296  2.794   4.578   0.914   
H  -7.627  2.621   5.093   0.915   
H  -7.995  3.394   3.555   0.917   
C  8.595   2.454   -4.240  4.251   
H  9.626   2.517   -4.592  0.915   
H  7.955   2.553   -5.118  0.915   
H  8.408   3.304   -3.588  0.917   
C  8.989   -0.069  -5.622  4.253   
H  8.273   0.455   -6.258  0.915   
H  9.941   0.453   -5.726  0.914   
H  9.114   -1.072  -6.018  0.918   
C  8.471   -2.623  -4.156  4.251   
H  7.829   -2.731  -5.031  0.915   
H  9.499   -2.767  -4.492  0.915   
H  8.230   -3.427  -3.465  0.917   
O  -1.260  4.562   3.309   6.545   
O  -4.022  0.911   3.364   6.542   
N  -2.644  2.739   3.330   5.137   
C  -1.374  3.327   3.328   3.500   
C  -0.193  2.426   3.334   4.080   
C  1.093   2.961   3.328   4.048   
H  1.209   4.042   3.318   0.887   
C  2.214   2.124   3.335   4.102   
H  3.198   2.584   3.330   0.912   
C  2.091   0.728   3.349   3.966   
C  0.779   0.151   3.355   3.986   
C  0.583   -1.268  3.366   3.966   
C  -0.727  -1.768  3.380   4.102   
H  -0.900  -2.840  3.394   0.912   
C  -1.839  -0.918  3.378   4.048   
H  -2.847  -1.325  3.389   0.887   
C  -1.676  0.465   3.360   4.080   
C  -2.865  1.356   3.357   3.501   
C  -0.362  1.013   3.350   3.986   
O  5.104   -5.986  3.341   6.544   
O  7.866   -2.334  3.339   6.544   
N  6.488   -4.163  3.342   5.137   
C  5.218   -4.751  3.339   3.500   
C  4.036   -3.851  3.347   4.080   
C  2.751   -4.386  3.347   4.048   
H  2.636   -5.466  3.342   0.887   
C  1.630   -3.549  3.354   4.102   
H  0.646   -4.008  3.355   0.912   
C  1.753   -2.152  3.359   3.966   
C  3.064   -1.575  3.355   3.986   
C  3.261   -0.156  3.355   3.966   
C  4.571   0.343   3.359   4.102   
H  4.744   1.416   3.363   0.912   
C  5.683   -0.506  3.357   4.048   
H  6.690   -0.098  3.359   0.887   
C  5.519   -1.889  3.351   4.080   
C  6.708   -2.780  3.340   3.501   
C  4.205   -2.437  3.351   3.986   
C  -3.828  3.633   3.381   4.005   
H  -3.566  4.551   2.842   0.914   
H  -4.647  3.124   2.859   0.915   
C  7.671   -5.058  3.287   4.005   
H  8.493   -4.545  3.799   0.914   
H  7.414   -5.973  3.833   0.915   
C  -4.208  3.935   4.821   3.987   
C  -5.175  3.165   5.477   4.138   
C  -3.559  4.960   5.520   4.144   
C  -5.502  3.418   6.815   3.959   
H  -5.671  2.359   4.943   0.902   
C  -3.867  5.226   6.861   3.958   
H  -2.800  5.550   5.014   0.896   
C  -4.849  4.454   7.517   3.998   
C  8.041   -5.372  1.846   3.988   
C  8.948   -4.561  1.156   4.140   
C  7.451   -6.456  1.185   4.141   
C  9.274   -4.830  -0.179  3.959   
H  9.400   -3.712  1.662   0.900   
C  7.761   -6.742  -0.152  3.958   
H  6.738   -7.080  1.717   0.898   
C  8.682   -5.926  -0.843  3.998   
C  -6.546  2.577   7.497   4.251   
H  -6.138  2.073   8.374   0.915   
H  -7.382  3.187   7.844   0.915   
H  -6.939  1.819   6.824   0.917   
C  -5.215  4.703   8.958   4.253   
H  -6.282  4.908   9.060   0.914   
H  -5.004  3.826   9.572   0.915   
H  -4.672  5.543   9.379   0.918   
C  -3.131  6.336   7.567   4.252   
H  -3.813  7.110   7.921   0.914   
H  -2.586  5.965   8.435   0.915   
H  -2.413  6.804   6.898   0.917   
C  10.258  -3.946  -0.897  4.251   
H  11.118  -4.517  -1.250  0.915   
H  9.806   -3.481  -1.775  0.915   
H  10.621  -3.155  -0.245  0.917   
C  9.051   -6.197  -2.279  4.253   
H  8.796   -5.347  -2.916  0.915   
H  10.126  -6.355  -2.383  0.914   
H  8.546   -7.073  -2.675  0.918   
C  7.099   -7.923  -0.813  4.251   
H  6.521   -7.621  -1.688  0.915   
H  7.832   -8.657  -1.149  0.915   
H  6.422   -8.419  -0.122  0.917   
