   84
Geometry Step: 665
    O     -0.82741194      6.05056281      0.84159419      6.54530945
    O      3.56036117      5.05734853     -0.00718984      6.54248352
    N      1.36875094      5.55734767      0.42384064      5.13699204
    C      0.02986805      5.18823458      0.59584443      3.50034680
    C     -0.31211257      3.74634095      0.48780471      4.07988120
    C     -1.62906521      3.32706281      0.65495217      4.04809094
    H     -2.39197673      4.07192999      0.86468888      0.88660305
    C     -1.96426356      1.97214844      0.55408925      4.10207164
    H     -3.00374298      1.68871294      0.69191734      0.91201370
    C     -0.99884936      0.99228046      0.28385612      3.96637859
    C      0.36405973      1.39690530      0.10789248      3.98609409
    C      1.40001137      0.44668199     -0.16737066      3.96649688
    C      2.71232915      0.90960037     -0.33727716      4.10200534
    H      3.51326949      0.20810017     -0.55232425      0.91203207
    C      3.03193673      2.26859410     -0.23894835      4.04797056
    H      4.05563279      2.60737584     -0.37409840      0.88664200
    C      2.04517503      3.21148109      0.03542496      4.07986902
    C      2.39761640      4.65177022      0.13832260      3.50080533
    C      0.69869086      2.78323683      0.21004705      3.98561269
    O      0.89519377     -6.04153623     -0.76152002      6.54436190
    O     -3.50069358     -5.04163349      0.03547015      6.54356414
    N     -1.30406226     -5.54549327     -0.36542435      5.13672709
    C      0.03591481     -5.17712911     -0.53137544      3.50044362
    C      0.37584372     -3.73379532     -0.43743078      4.07988964
    C      1.69369968     -3.31519757     -0.59891206      4.04805004
    H      2.45865198     -4.06215844     -0.79375669      0.88658868
    C      2.02690908     -1.95868939     -0.51242347      4.10200902
    H      3.06733985     -1.67601767     -0.64512568      0.91201418
    C      1.05866568     -0.97667798     -0.26049661      3.96642533
    C     -0.30459853     -1.38114755     -0.08643725      3.98609507
    C     -1.34220516     -0.42971510      0.17823036      3.96646752
    C     -2.65748116     -0.89054985      0.33034864      4.10207824
    H     -3.46110008     -0.18699873      0.52808000      0.91204445
    C     -2.97683965     -2.24990135      0.23581939      4.04796738
    H     -4.00291157     -2.58676349      0.35779894      0.88665168
    C     -1.98621887     -3.19554487     -0.01442345      4.07983747
    C     -2.33645313     -4.63729041     -0.10328209      3.50086382
    C     -0.63802610     -2.76850636     -0.17916246      3.98566672
    C      1.70736172      7.00194972      0.47487789      4.00503020
    H      1.01531199      7.47419453      1.18191655      0.91418250
    H      2.73185923      7.08565376      0.85467968      0.91538840
    C     -1.64001196     -6.99054285     -0.41147686      4.00509770
    H     -2.66861371     -7.07465299     -0.78074206      0.91447697
    H     -0.95506681     -7.46279737     -1.12544970      0.91527988
    C      1.58736093      7.62711449     -0.90531553      3.98738289
    C      2.70777788      7.73279605     -1.73655404      4.13770552
    C      0.34319248      8.06259876     -1.37509833      4.14393202
    C      2.59443431      8.27586145     -3.02240516      3.95931754
    H      3.67345039      7.38240164     -1.38182255      0.90158246
    C      0.20594793      8.60483254     -2.66013883      3.95757311
    H     -0.52941313      7.97023309     -0.73399573      0.89644848
    C      1.33916829      8.71787092     -3.49337687      3.99760254
    C     -1.50519597     -7.61887543      0.96619895      3.98750278
    C     -2.60074329     -7.65821649      1.83597081      4.13984472
    C     -0.27516275     -8.13285719      1.39130213      4.14134848
    C     -2.47669802     -8.21252127      3.11589962      3.95938180
    H     -3.55534919     -7.25036542      1.51394296      0.90030099
    C     -0.12793435     -8.69049379      2.66887735      3.95767990
    H      0.57894946     -8.09256422      0.72048015      0.89778541
    C     -1.23598252     -8.73512357      3.54136976      3.99755796
    C      3.81499677      8.37984623     -3.89611684      4.25120044
    H      3.68254038      7.82775208     -4.82798484      0.91493702
    H      4.01882896      9.41641101     -4.17016954      0.91497480
    H      4.69287694      7.98518645     -3.39119937      0.91696757
    C      1.24204035      9.29427024     -4.88231893      4.25344854
    H      1.91469295     10.14526390     -5.00028211      0.91447124
    H      1.53442149      8.55731615     -5.63266420      0.91456776
    H      0.23665091      9.62866337     -5.11832342      0.91767560
    C     -1.15950516      9.04915380     -3.11737816      4.25165377
    H     -1.17615201     10.11213126     -3.36080730      0.91443941
    H     -1.47808601      8.50936417     -4.00986749      0.91509620
    H     -1.89909005      8.87317731     -2.34024414      0.91669746
    C     -3.67193409     -8.24875543      4.02908543      4.25137044
    H     -3.91845303     -9.27225452      4.31658835      0.91490435
    H     -3.48195119     -7.69898991      4.95236849      0.91493103
    H     -4.54412009     -7.81244767      3.54909292      0.91689315
    C     -1.12840290     -9.32930326      4.92209026      4.25339489
    H     -1.36689154     -8.58787130      5.68686108      0.91469862
    H     -1.83586265    -10.15042169      5.05005042      0.91440363
    H     -0.13360942     -9.71223204      5.12796226      0.91768110
    C      1.21919099     -9.23177215      3.07336548      4.25146121
    H      1.60685870     -8.72447718      3.95749518      0.91489486
    H      1.16931975    -10.29577542      3.30809476      0.91463258
    H      1.94108917     -9.10070066      2.27111824      0.91675721
