30
bta_68a.pdb
C         -1.07300        0.42400       -0.09900
C         -1.07200       -0.97800       -0.09200
C          0.13800       -1.68300       -0.08900
C          1.34700       -0.97800       -0.09200
C          1.35500        0.41900       -0.08600
C          0.14200        1.12000       -0.09200
H         -2.02100       -1.51100       -0.11300
H          2.28600       -1.52700       -0.10900
H          0.14500        2.20800       -0.10700
N          2.63000        1.15000       -0.07300
C          2.77200        2.31400       -0.77600
H          3.37600        0.77800        0.45400
O          1.84200        2.79600       -1.44500
N          4.09800        2.94100       -0.67600
H          4.35600        3.43600        0.15400
N          0.13800       -3.15300       -0.08300
C         -0.80100       -3.84600        0.62800
H          0.83200       -3.62100       -0.60400
O         -1.68200       -3.27100        1.29000
N         -0.68500       -5.30900        0.54700
H         -0.98600       -5.79000       -0.27700
N         -2.34500        1.16100       -0.11400
C         -3.41200        0.69300       -0.82900
H         -2.40500        1.99700        0.40500
O         -3.35200       -0.35900       -1.48700
N         -4.62100        1.52700       -0.75600
H         -5.19100        1.51000        0.06500
H         -0.30600       -5.82400        1.31600
H         -4.87200        2.11100       -1.52800
H          4.74200        2.87300       -1.43800
