   94
Geometry Step: 749
    O     -5.85705704      0.75401802     -1.72449492      6.54251141
    O     -5.52071044     -1.53746175      2.23996308      6.54496576
    N     -5.71649435     -0.39368147      0.25771316      5.15120189
    C     -1.42876842     -0.09081984      0.06946838      3.98634543
    C     -0.82482099      0.58074861     -1.04222892      3.96648427
    C     -2.85338212     -0.19034770      0.13278983      3.98553045
    C     -0.64183155     -0.66680649      1.11851145      3.96676745
    C     -3.48105748     -0.85185011      1.22446385      4.08200349
    C     -5.14034418      0.26884574     -0.83614261      3.50400060
    C     -3.65921085      0.36983012     -0.89663820      4.07968524
    C     -2.69345894     -1.40060431      2.23303448      4.04841284
    C     -1.29782102     -1.30877343      2.17825923      4.10211662
    C     -3.04797069      1.01738906     -1.96690035      4.04835621
    C     -4.96313501     -0.96049454      1.29393125      3.49711922
    H     -3.18298048     -1.90261303      3.06338305      0.88626350
    H     -0.72181239     -1.75228214      2.98547813      0.91211240
    H     -3.67408754      1.44072494     -2.74781115      0.88594767
    O      5.85303855     -0.76029785      1.72192508      6.54250599
    O      5.51528203      1.54555681     -2.23421618      6.54504518
    N      5.71199356      0.39367140     -0.25655058      5.15123653
    C      1.42373601      0.10393400     -0.05974982      3.98634965
    C      0.81996438     -0.56835293      1.05165483      3.96647528
    C      2.84842265      0.20022337     -0.12534939      3.98553339
    C      0.63676444      0.68215169     -1.10748048      3.96675277
    C      3.47580377      0.86343727     -1.21616471      4.08200114
    C      5.13597606     -0.27007027      0.83663903      3.50400288
    C      3.65470858     -0.36584066      0.90044194      4.07966908
    C      2.68795244      1.41769340     -2.22151272      4.04840208
    C      1.29234672      1.32697921     -2.16573670      4.10215254
    C      3.04380705     -1.01491366      1.96993309      4.04836756
    C      4.95810191      0.96729073     -1.28864820      3.49716089
    H      3.17721950      1.92177294     -3.05072996      0.88623735
    H      0.71606581      1.77273645     -2.97141463      0.91209003
    H      3.67052125     -1.44360343      2.74739111      0.88593163
    C      1.64950625     -1.11238146      2.04243499      4.10237404
    C     -1.65388662      1.11986686     -2.03602797      4.10239876
    H      1.21420472     -1.62569963      2.89511262      0.91196809
    H     -1.21827650      1.63216131     -2.88912643      0.91196946
    C      7.20725338      0.46334373     -0.31093142      3.91582107
    H      7.54404006     -0.03980352      0.60967005      0.91140054
    C     -7.21155944     -0.46685603      0.30995889      3.91582239
    H     -7.54800044      0.03003497     -0.61408133      0.91143362
    C      7.68191111      1.93291494     -0.27994827      4.16322737
    H      7.06155288      2.48822908      0.43204880      0.93201136
    H      7.52374250      2.39486241     -1.25743232      0.89914375
    C     -7.68288845     -1.93761889      0.28672504      4.16319208
    H     -7.05775648     -2.49646156     -0.41829147      0.93198226
    H     -7.52889142     -2.39309222      1.26791928      0.89912822
    C      7.74195615     -0.31659206     -1.53019148      4.16724484
    H      7.38382350      0.15237363     -2.45020954      0.89859609
    H      8.83351214     -0.23628964     -1.54071518      0.92791686
    C     -7.75067767      0.31940407      1.52341144      4.16691542
    H     -8.84276363      0.24525810      1.52591359      0.92802844
    H     -7.40203333     -0.14912350      2.44730726      0.89886691
    C      9.15151879      2.06002440      0.12957531      4.13618124
    C      9.61528604      3.51957981      0.17608716      4.12098864
    H      9.78270925      1.50078516     -0.56922999      0.92974506
    H      9.29832389      1.59716355      1.11160400      0.92874949
    C     11.06245708      3.65734534      0.62856696      4.26283265
    H      9.49572091      3.96969566     -0.81481031      0.92884021
    H      8.96492633      4.08590700      0.85107439      0.93050372
    H     11.36452397      4.70207961      0.64958862      0.91855870
    H     11.19948994      3.24803501      1.62738694      0.91630573
    H     11.73418408      3.12613480     -0.04271113      0.91675370
    C     -9.15006858     -2.07101492     -0.12981686      4.13623082
    C     -9.60801188     -3.53246181     -0.17541381      4.12098441
    H     -9.29317309     -1.61133180     -1.11384662      0.92876274
    H     -9.78683151     -1.51203916      0.56412664      0.92975369
    C    -11.05080609     -3.67758555     -0.63953611      4.26279278
    H     -8.95000019     -4.09809677     -0.84349097      0.93050901
    H     -9.49470189     -3.97923994      0.81769930      0.92883076
    H    -11.34762567     -4.72388136     -0.66155078      0.91857486
    H    -11.73067374     -3.14848331      0.02529827      0.91675448
    H    -11.18142405     -3.27047906     -1.64020130      0.91631975
    C     -7.33796794      1.79305915      1.49487937      4.13476633
    C     -7.87771050      2.56921995      2.69974489      4.12153686
    H     -7.69000826      2.25643189      0.56755639      0.92338260
    H     -6.24462340      1.86771621      1.47663423      0.93679224
    C     -7.45224955      4.03082675      2.68838030      4.26244796
    H     -8.97079704      2.50470932      2.71407497      0.93078605
    H     -7.53015821      2.09264820      3.62235012      0.92872411
    H     -7.84538111      4.55667845      3.55557278      0.91884057
    H     -6.36784371      4.12034754      2.70354579      0.91794117
    H     -7.81453443      4.53615351      1.79550639      0.91569838
    C      7.33780642     -1.79260606     -1.50196334      4.13479351
    C      7.87524694     -2.56314955     -2.71150133      4.12156610
    H      6.24499798     -1.87348709     -1.47693850      0.93667291
    H      7.69835850     -2.25563933     -0.57766645      0.92346904
    C      7.46586599     -4.02930085     -2.69733301      4.26241110
    H      7.51537328     -2.08971232     -3.63089235      0.92874403
    H      8.96740063     -2.48725761     -2.73480060      0.93079348
    H      7.85806784     -4.55034522     -3.56787111      0.91887258
    H      7.84136200     -4.53082416     -1.80775124      0.91571281
    H      6.38244107     -4.13132623     -2.70368504      0.91789573
